data/upstream/arpae-go/extracted/Challenge_1_Original_Dataset_2_Scenarios/Original_Dataset_Real-Time_Edition_2/Network_07R-020/scenario_1/case.raw
0,   100.00, 33, 0, 1, 60.00     / PSS(R)E-33.7    TUE, SEP 11 2018  20:05
 GO Competition Network Model 07
 GO Competition Network Model 07
     1,'A1          ', 345.0000,1,   1,   1,   1,1.00400, -17.3513,1.05000,0.95000,1.10000,0.90000
     2,'A2          ', 345.0000,1,   1,   1,   1,1.00402, -17.3597,1.05000,0.95000,1.10000,0.90000
     3,'A3          ', 345.0000,1,   1,   1,   1,1.00111, -18.6848,1.05000,0.95000,1.10000,0.90000
     4,'A4          ', 345.0000,1,   1,   1,   1,1.00113, -18.6897,1.05000,0.95000,1.10000,0.90000
     5,'A5          ', 345.0000,1,   1,   1,   1,1.00143, -17.1559,1.05000,0.95000,1.10000,0.90000
     6,'A6          ', 345.0000,1,   1,   1,   1,1.00145, -17.1640,1.05000,0.95000,1.10000,0.90000
     7,'A7          ', 345.0000,1,   1,   1,   1,0.99865, -17.6140,1.05000,0.95000,1.10000,0.90000
     8,'A8          ', 345.0000,1,   1,   1,   1,0.99867, -17.6194,1.05000,0.95000,1.10000,0.90000
     9,'A9          ', 345.0000,2,   1,   1,   1,1.00363, -15.6140,1.05000,0.95000,1.10000,0.90000
    10,'A10         ', 345.0000,2,   1,   1,   1,1.00358, -15.5692,1.05000,0.95000,1.10000,0.90000
    11,'A11         ', 138.0000,2,   1,   1,   1,1.00455, -17.7053,1.05000,0.95000,1.10000,0.90000
    12,'A12         ', 138.0000,2,   1,   1,   1,1.00083, -17.6113,1.05000,0.95000,1.10000,0.90000
    13,'A13         ', 138.0000,1,   1,   1,   1,1.00397, -17.4749,1.05000,0.95000,1.10000,0.90000
    14,'A14         ', 138.0000,1,   1,   1,   1,1.00110, -17.4753,1.05000,0.95000,1.10000,0.90000
    15,'A15         ', 138.0000,1,   1,   1,   1,1.00256, -17.9244,1.05000,0.95000,1.10000,0.90000
    16,'A16         ', 138.0000,1,   1,   1,   1,1.00256, -17.9241,1.05000,0.95000,1.10000,0.90000
    17,'A17         ', 138.0000,1,   1,   1,   1,1.00589, -17.8764,1.05000,0.95000,1.10000,0.90000
    18,'A18         ', 138.0000,1,   1,   1,   1,1.00563, -16.3528,1.05000,0.95000,1.10000,0.90000
    19,'A19         ', 138.0000,1,   1,   1,   1,1.00558, -16.3323,1.05000,0.95000,1.10000,0.90000
    20,'A20         ', 138.0000,2,   1,   1,   1,1.00676, -17.8176,1.05000,0.95000,1.10000,0.90000
    21,'A21         ', 138.0000,1,   1,   1,   1,0.98363, -20.8113,1.05000,0.95000,1.10000,0.90000
    22,'A22         ', 138.0000,1,   1,   1,   1,0.98373, -20.8062,1.05000,0.95000,1.10000,0.90000
    23,'A23         ', 138.0000,1,   1,   1,   1,1.00219, -19.6016,1.05000,0.95000,1.10000,0.90000
    24,'A24         ', 138.0000,2,   1,   1,   1,1.00540, -19.5410,1.05000,0.95000,1.10000,0.90000
    25,'A25         ', 138.0000,2,   1,   1,   1,1.00300, -17.6782,1.05000,0.95000,1.10000,0.90000
    26,'A26         ', 138.0000,2,   1,   1,   1,1.00308, -17.6830,1.05000,0.95000,1.10000,0.90000
    27,'A27         ', 138.0000,1,   1,   1,   1,1.00398, -17.8293,1.05000,0.95000,1.10000,0.90000
    28,'A28         ', 138.0000,1,   1,   1,   1,1.00424, -17.8155,1.05000,0.95000,1.10000,0.90000
    29,'A29         ', 138.0000,1,   1,   1,   1,1.00522, -17.1459,1.05000,0.95000,1.10000,0.90000
    30,'A30         ', 138.0000,1,   1,   1,   1,1.00524, -17.1446,1.05000,0.95000,1.10000,0.90000
    31,'A31         ', 138.0000,1,   1,   1,   1,0.98298, -21.5983,1.05000,0.95000,1.10000,0.90000
    32,'A32         ', 138.0000,2,   1,   1,   1,0.98295, -21.6334,1.05000,0.95000,1.10000,0.90000
    33,'A33         ', 138.0000,1,   1,   1,   1,1.00525, -15.8057,1.05000,0.95000,1.10000,0.90000
    34,'A34         ', 138.0000,1,   1,   1,   1,1.00550, -15.7939,1.05000,0.95000,1.10000,0.90000
    35,'A35         ', 138.0000,1,   1,   1,   1,1.00303, -17.7378,1.05000,0.95000,1.10000,0.90000
    36,'A36         ', 138.0000,1,   1,   1,   1,1.00392, -17.5031,1.05000,0.95000,1.10000,0.90000
    37,'A37         ', 138.0000,1,   1,   1,   1,1.00304, -17.7372,1.05000,0.95000,1.10000,0.90000
    38,'A38         ', 138.0000,1,   1,   1,   1,1.00392, -17.5031,1.05000,0.95000,1.10000,0.90000
    39,'A39         ', 138.0000,1,   1,   1,   1,0.99607, -24.7355,1.05000,0.95000,1.10000,0.90000
    40,'A40         ', 138.0000,1,   1,   1,   1,1.00399, -17.5794,1.05000,0.95000,1.10000,0.90000
    41,'A41         ', 138.0000,1,   1,   1,   1,1.00399, -17.5815,1.05000,0.95000,1.10000,0.90000
    42,'A42         ', 138.0000,1,   1,   1,   1,1.00726, -16.8905,1.05000,0.95000,1.10000,0.90000
    43,'A43         ', 138.0000,1,   1,   1,   1,1.00729, -16.8884,1.05000,0.95000,1.10000,0.90000
    44,'A44         ', 138.0000,1,   1,   1,   1,0.98198, -20.7983,1.05000,0.95000,1.10000,0.90000
    45,'A45         ', 138.0000,1,   1,   1,   1,0.98193, -20.8064,1.05000,0.95000,1.10000,0.90000
    46,'A46         ', 138.0000,2,   1,   1,   1,0.99727, -20.3608,1.05000,0.95000,1.10000,0.90000
    47,'A47         ', 138.0000,1,   1,   1,   1,0.98968, -19.8533,1.05000,0.95000,1.10000,0.90000
    48,'A48         ', 138.0000,1,   1,   1,   1,0.98953, -19.8561,1.05000,0.95000,1.10000,0.90000
    49,'A49         ', 138.0000,1,   1,   1,   1,0.99526, -26.1981,1.05000,0.95000,1.10000,0.90000
    50,'A50         ', 138.0000,1,   1,   1,   1,0.99980, -21.2733,1.05000,0.95000,1.10000,0.90000
    51,'A51         ', 138.0000,1,   1,   1,   1,0.99980, -21.2733,1.05000,0.95000,1.10000,0.90000
    52,'A52         ', 138.0000,1,   1,   1,   1,0.98437, -20.5704,1.05000,0.95000,1.10000,0.90000
    53,'A53         ', 138.0000,2,   1,   1,   1,0.99745, -19.9422,1.05000,0.95000,1.10000,0.90000
    54,'A54         ', 138.0000,1,   1,   1,   1,1.00308, -17.5653,1.05000,0.95000,1.10000,0.90000
    55,'A55         ', 138.0000,1,   1,   1,   1,1.00315, -17.5867,1.05000,0.95000,1.10000,0.90000
    56,'A56         ', 138.0000,1,   1,   1,   1,0.99984, -21.3973,1.05000,0.95000,1.10000,0.90000
    57,'A57         ', 138.0000,1,   1,   1,   1,0.99957, -21.3495,1.05000,0.95000,1.10000,0.90000
    58,'A58         ', 138.0000,1,   1,   1,   1,1.00226, -17.9999,1.05000,0.95000,1.10000,0.90000
    59,'A59         ', 138.0000,1,   1,   1,   1,1.00560, -17.3874,1.05000,0.95000,1.10000,0.90000
    60,'A60         ', 138.0000,1,   1,   1,   1,0.98544, -19.8758,1.05000,0.95000,1.10000,0.90000
    61,'A61         ', 138.0000,1,   1,   1,   1,0.98546, -19.8738,1.05000,0.95000,1.10000,0.90000
    62,'A62         ', 138.0000,1,   1,   1,   1,1.00564, -16.3520,1.05000,0.95000,1.10000,0.90000
    63,'A63         ', 138.0000,1,   1,   1,   1,1.00559, -16.3318,1.05000,0.95000,1.10000,0.90000
    64,'A64         ', 138.0000,1,   1,   1,   1,1.00307, -17.7890,1.05000,0.95000,1.10000,0.90000
    65,'A65         ', 138.0000,1,   1,   1,   1,1.00524, -17.1397,1.05000,0.95000,1.10000,0.90000
    66,'A66         ', 138.0000,1,   1,   1,   1,0.99748, -22.0908,1.05000,0.95000,1.10000,0.90000
    67,'A67         ', 138.0000,2,   1,   1,   1,0.99748, -22.1028,1.05000,0.95000,1.10000,0.90000
    68,'A68         ', 138.0000,2,   1,   1,   1,1.00858, -14.7540,1.05000,0.95000,1.10000,0.90000
    69,'A69         ', 138.0000,1,   1,   1,   1,0.99242, -19.8002,1.05000,0.95000,1.10000,0.90000
    70,'A70         ', 138.0000,1,   1,   1,   1,0.97847, -21.1279,1.05000,0.95000,1.10000,0.90000
    71,'B71         ', 345.0000,1,   2,   2,   1,0.99045, -14.8954,1.05000,0.95000,1.10000,0.90000
    72,'B72         ', 345.0000,1,   2,   2,   1,0.99045, -14.8954,1.05000,0.95000,1.10000,0.90000
    73,'B73         ', 345.0000,1,   2,   2,   1,1.00082, -12.7269,1.05000,0.95000,1.10000,0.90000
    74,'B74         ', 345.0000,1,   2,   2,   1,1.00082, -12.7269,1.05000,0.95000,1.10000,0.90000
    75,'B75         ', 345.0000,2,   2,   2,   1,1.00773, -14.7528,1.05000,0.95000,1.10000,0.90000
    76,'B76         ', 345.0000,2,   2,   2,   1,1.00788, -14.7512,1.05000,0.95000,1.10000,0.90000
    77,'B77         ', 500.0000,2,   2,   2,   1,1.00260, -17.3119,1.05000,0.95000,1.10000,0.90000
    78,'B78         ', 345.0000,2,   2,   2,   1,0.99160, -14.2229,1.05000,0.95000,1.10000,0.90000
    79,'B79         ', 345.0000,1,   2,   2,   1,0.99022, -14.0158,1.05000,0.95000,1.10000,0.90000
    80,'B80         ', 345.0000,1,   2,   2,   1,0.99022, -14.0158,1.05000,0.95000,1.10000,0.90000
    81,'B81         ', 345.0000,1,   2,   2,   1,0.99020, -14.8361,1.05000,0.95000,1.10000,0.90000
    82,'B82         ', 345.0000,1,   2,   2,   1,0.99020, -14.8337,1.05000,0.95000,1.10000,0.90000
    83,'B83         ', 138.0000,1,   2,   2,   1,0.96902, -15.6986,1.05000,0.95000,1.10000,0.90000
    84,'B84         ', 138.0000,1,   2,   2,   1,0.97935, -14.3266,1.05000,0.95000,1.10000,0.90000
    85,'B85         ', 138.0000,1,   2,   2,   1,1.00525, -13.0211,1.05000,0.95000,1.10000,0.90000
    86,'B86         ', 138.0000,1,   2,   2,   1,1.00012, -16.6464,1.05000,0.95000,1.10000,0.90000
    87,'B87         ', 138.0000,1,   2,   2,   1,0.97270, -10.7510,1.05000,0.95000,1.10000,0.90000
    88,'B88         ', 138.0000,1,   2,   2,   1,0.98594, -10.0876,1.05000,0.95000,1.10000,0.90000
    89,'B89         ', 138.0000,1,   2,   2,   1,0.97891, -15.3045,1.05000,0.95000,1.10000,0.90000
    90,'B90         ', 138.0000,2,   2,   2,   1,0.97863, -16.9932,1.05000,0.95000,1.10000,0.90000
    91,'B91         ', 138.0000,1,   2,   2,   1,0.99053,  -7.8363,1.05000,0.95000,1.10000,0.90000
    92,'B92         ', 138.0000,2,   2,   2,   1,1.00542, -13.0002,1.05000,0.95000,1.10000,0.90000
    93,'B93         ', 138.0000,1,   2,   2,   1,1.00542, -13.0002,1.05000,0.95000,1.10000,0.90000
    94,'B94         ', 138.0000,1,   2,   2,   1,0.96478, -15.2007,1.05000,0.95000,1.10000,0.90000
    95,'B95         ', 138.0000,2,   2,   2,   1,0.95338, -19.5253,1.05000,0.95000,1.10000,0.90000
    96,'B96         ', 138.0000,2,   2,   2,   1,0.97280, -15.8720,1.05000,0.95000,1.10000,0.90000
    97,'B97         ', 138.0000,1,   2,   2,   1,0.97260, -15.8818,1.05000,0.95000,1.10000,0.90000
    98,'B98         ', 138.0000,2,   2,   2,   1,1.00358, -11.9608,1.05000,0.95000,1.10000,0.90000
    99,'B99         ', 138.0000,2,   2,   2,   1,1.00788, -10.5048,1.05000,0.95000,1.10000,0.90000
   100,'B100        ', 138.0000,1,   2,   2,   1,0.96389, -16.4496,1.05000,0.95000,1.10000,0.90000
   101,'B101        ', 138.0000,1,   2,   2,   1,0.99892, -13.5424,1.05000,0.95000,1.10000,0.90000
   102,'B102        ', 138.0000,1,   2,   2,   1,0.96660, -15.8451,1.05000,0.95000,1.10000,0.90000
   103,'B103        ', 138.0000,1,   2,   2,   1,1.00291, -12.0580,1.05000,0.95000,1.10000,0.90000
   104,'B104        ', 138.0000,1,   2,   2,   1,0.95506, -17.9851,1.05000,0.95000,1.10000,0.90000
   105,'B105        ', 138.0000,1,   2,   2,   1,1.00607, -13.1323,1.05000,0.95000,1.10000,0.90000
   106,'B106        ', 138.0000,1,   2,   2,   1,0.98413, -15.0942,1.05000,0.95000,1.10000,0.90000
   107,'B107        ', 138.0000,1,   2,   2,   1,0.97994, -13.0413,1.05000,0.95000,1.10000,0.90000
   108,'B108        ', 138.0000,1,   2,   2,   1,0.97135, -15.8565,1.05000,0.95000,1.10000,0.90000
   109,'B109        ', 138.0000,1,   2,   2,   1,0.98382, -15.2881,1.05000,0.95000,1.10000,0.90000
   110,'B110        ', 138.0000,1,   2,   2,   1,0.97317, -12.6780,1.05000,0.95000,1.10000,0.90000
   111,'B111        ', 138.0000,1,   2,   2,   1,0.96128, -16.8415,1.05000,0.95000,1.10000,0.90000
   112,'B112        ', 138.0000,2,   2,   2,   1,0.98564, -15.1361,1.05000,0.95000,1.10000,0.90000
   113,'B113        ', 138.0000,1,   2,   2,   1,0.97502, -10.4368,1.05000,0.95000,1.10000,0.90000
   114,'B114        ', 138.0000,1,   2,   2,   1,0.97905, -14.4715,1.05000,0.95000,1.10000,0.90000
   115,'B115        ', 138.0000,1,   2,   2,   1,0.98389, -13.9677,1.05000,0.95000,1.10000,0.90000
   116,'B116        ', 138.0000,1,   2,   2,   1,0.95650, -17.3460,1.05000,0.95000,1.10000,0.90000
   117,'B117        ', 138.0000,1,   2,   2,   1,0.95510, -20.4160,1.05000,0.95000,1.10000,0.90000
   118,'B118        ', 138.0000,1,   2,   2,   1,0.96949, -15.8590,1.05000,0.95000,1.10000,0.90000
   119,'B119        ', 138.0000,1,   2,   2,   1,0.96999, -13.6109,1.05000,0.95000,1.10000,0.90000
   120,'B120        ', 138.0000,2,   2,   2,   1,0.98356, -15.1915,1.05000,0.95000,1.10000,0.90000
   121,'B121        ', 138.0000,1,   2,   2,   1,0.98344, -15.1963,1.05000,0.95000,1.10000,0.90000
   122,'B122        ', 138.0000,1,   2,   2,   1,0.96530, -16.0861,1.05000,0.95000,1.10000,0.90000
   123,'B123        ', 138.0000,1,   2,   2,   1,0.97465, -15.6145,1.05000,0.95000,1.10000,0.90000
   124,'B124        ', 138.0000,2,   2,   2,   1,0.96881, -15.6280,1.05000,0.95000,1.10000,0.90000
   125,'B125        ', 138.0000,2,   2,   2,   1,0.96863, -15.6209,1.05000,0.95000,1.10000,0.90000
   126,'B126        ', 138.0000,1,   2,   2,   1,0.97959, -14.9282,1.05000,0.95000,1.10000,0.90000
   127,'B127        ', 138.0000,2,   2,   2,   1,0.95990, -17.0151,1.05000,0.95000,1.10000,0.90000
   128,'B128        ', 138.0000,2,   2,   2,   1,0.95997, -17.0282,1.05000,0.95000,1.10000,0.90000
   129,'B129        ', 138.0000,1,   2,   2,   1,0.97272, -15.8762,1.05000,0.95000,1.10000,0.90000
   130,'B130        ', 138.0000,1,   2,   2,   1,0.97435, -10.4822,1.05000,0.95000,1.10000,0.90000
   131,'B131        ', 138.0000,1,   2,   2,   1,0.98497, -15.1815,1.05000,0.95000,1.10000,0.90000
   132,'B132        ', 138.0000,1,   2,   2,   1,0.95663, -17.4006,1.05000,0.95000,1.10000,0.90000
   133,'B133        ', 138.0000,1,   2,   2,   1,0.95510, -17.4649,1.05000,0.95000,1.10000,0.90000
   134,'B134        ', 138.0000,1,   2,   2,   1,0.95565, -17.4204,1.05000,0.95000,1.10000,0.90000
   135,'B135        ', 138.0000,2,   2,   2,   1,1.00718,  -3.5105,1.05000,0.95000,1.10000,0.90000
   136,'B136        ', 138.0000,2,   2,   2,   1,0.97139, -15.5661,1.05000,0.95000,1.10000,0.90000
   137,'B137        ', 138.0000,1,   2,   2,   1,0.97218, -15.9134,1.05000,0.95000,1.10000,0.90000
   138,'B138        ', 138.0000,2,   2,   2,   1,0.95454, -20.0498,1.05000,0.95000,1.10000,0.90000
   139,'B139        ', 138.0000,1,   2,   2,   1,0.96858, -15.8198,1.05000,0.95000,1.10000,0.90000
   140,'B140        ', 138.0000,1,   2,   2,   1,1.00286, -14.3711,1.05000,0.95000,1.10000,0.90000
   141,'B141        ', 138.0000,1,   2,   2,   1,0.97185, -10.8573,1.05000,0.95000,1.10000,0.90000
   142,'B142        ', 138.0000,1,   2,   2,   1,0.95719, -17.3563,1.05000,0.95000,1.10000,0.90000
   143,'B143        ', 138.0000,1,   2,   2,   1,0.98462, -13.8289,1.05000,0.95000,1.10000,0.90000
   144,'B144        ', 138.0000,1,   2,   2,   1,0.97691, -15.3809,1.05000,0.95000,1.10000,0.90000
   145,'B145        ', 138.0000,1,   2,   2,   1,0.98484, -15.1135,1.05000,0.95000,1.10000,0.90000
   146,'B146        ', 138.0000,1,   2,   2,   1,0.97100, -15.8941,1.05000,0.95000,1.10000,0.90000
   147,'B147        ', 138.0000,1,   2,   2,   1,0.97677, -15.3900,1.05000,0.95000,1.10000,0.90000
   148,'B148        ', 138.0000,1,   2,   2,   1,0.96592, -16.1203,1.05000,0.95000,1.10000,0.90000
   149,'B149        ', 138.0000,1,   2,   2,   1,0.96924, -14.4469,1.05000,0.95000,1.10000,0.90000
   150,'B150        ', 345.0000,2,   2,   2,   1,1.00794, -15.5354,1.05000,0.95000,1.10000,0.90000
   151,'C151        ', 345.0000,1,   3,   3,   1,0.99242, -13.3380,1.05000,0.95000,1.10000,0.90000
   152,'C152        ', 500.0000,1,   3,   3,   1,0.99960, -12.4534,1.05000,0.95000,1.10000,0.90000
   153,'C153        ', 500.0000,2,   3,   3,   1,0.99958, -12.4500,1.05000,0.95000,1.10000,0.90000
   154,'C154        ', 500.0000,1,   3,   3,   1,0.99460, -15.8482,1.05000,0.95000,1.10000,0.90000
   155,'C155        ', 500.0000,1,   3,   3,   1,0.99465, -15.8119,1.05000,0.95000,1.10000,0.90000
   156,'C156        ', 500.0000,1,   3,   3,   1,1.00549, -21.4770,1.05000,0.95000,1.10000,0.90000
   157,'C157        ', 345.0000,2,   3,   3,   1,0.98768, -20.7171,1.05000,0.95000,1.10000,0.90000
   158,'C158        ', 500.0000,2,   3,   3,   1,0.96130, -20.9304,1.05000,0.95000,1.10000,0.90000
   159,'C159        ', 500.0000,1,   3,   3,   1,0.96130, -20.9304,1.05000,0.95000,1.10000,0.90000
   160,'C160        ', 500.0000,1,   3,   3,   1,0.98456, -14.0878,1.05000,0.95000,1.10000,0.90000
   161,'C161        ', 500.0000,2,   3,   3,   1,0.98429, -14.0777,1.05000,0.95000,1.10000,0.90000
   162,'C162        ', 500.0000,1,   3,   3,   1,0.99786, -12.7725,1.05000,0.95000,1.10000,0.90000
   163,'C163        ', 500.0000,1,   3,   3,   1,1.00755, -12.1907,1.05000,0.95000,1.10000,0.90000
   164,'C164        ', 500.0000,1,   3,   3,   1,1.00748, -12.1955,1.05000,0.95000,1.10000,0.90000
   165,'C165        ', 500.0000,2,   3,   3,   1,1.00429, -13.7739,1.05000,0.95000,1.10000,0.90000
   166,'C166        ', 500.0000,2,   3,   3,   1,1.00445, -13.7826,1.05000,0.95000,1.10000,0.90000
   167,'C167        ', 138.0000,1,   3,   3,   1,1.00244,  -7.4180,1.05000,0.95000,1.10000,0.90000
   168,'C168        ', 138.0000,2,   3,   3,   1,0.99919, -14.6176,1.05000,0.95000,1.10000,0.90000
   169,'C169        ', 138.0000,2,   3,   3,   1,0.99897, -14.6135,1.05000,0.95000,1.10000,0.90000
   170,'C170        ', 138.0000,1,   3,   3,   1,0.99804, -14.9577,1.05000,0.95000,1.10000,0.90000
   171,'C171        ', 138.0000,2,   3,   3,   1,1.00662,  -4.0399,1.05000,0.95000,1.10000,0.90000
   172,'C172        ', 138.0000,1,   3,   3,   1,0.97791, -19.2728,1.05000,0.95000,1.10000,0.90000
   173,'C173        ',  32.0000,1,   3,   3,   1,1.02968, -21.6170,1.05000,0.95000,1.10000,0.90000
   174,'C174        ', 138.0000,1,   3,   3,   1,0.98805, -15.8881,1.05000,0.95000,1.10000,0.90000
   175,'C175        ', 138.0000,1,   3,   3,   1,0.99237, -15.1604,1.05000,0.95000,1.10000,0.90000
   176,'C176        ', 138.0000,1,   3,   3,   1,0.99238, -15.1525,1.05000,0.95000,1.10000,0.90000
   177,'C177        ', 138.0000,2,   3,   3,   1,1.00726, -12.2885,1.05000,0.95000,1.10000,0.90000
   178,'C178        ', 138.0000,2,   3,   3,   1,1.00788, -12.1685,1.05000,0.95000,1.10000,0.90000
   179,'C179        ', 138.0000,1,   3,   3,   1,0.99033, -15.3645,1.05000,0.95000,1.10000,0.90000
   180,'C180        ', 138.0000,1,   3,   3,   1,0.99213, -15.1789,1.05000,0.95000,1.10000,0.90000
   181,'C181        ', 138.0000,1,   3,   3,   1,0.98807, -15.8710,1.05000,0.95000,1.10000,0.90000
   182,'C182        ', 138.0000,1,   3,   3,   1,0.99362, -15.0720,1.05000,0.95000,1.10000,0.90000
   183,'C183        ', 138.0000,2,   3,   3,   1,1.00718,  -3.4323,1.05000,0.95000,1.10000,0.90000
   184,'C184        ', 138.0000,1,   3,   3,   1,1.00694,  -3.9952,1.05000,0.95000,1.10000,0.90000
   185,'C185        ', 138.0000,2,   3,   3,   1,1.00980, -13.9790,1.05000,0.95000,1.10000,0.90000
   186,'C186        ', 138.0000,1,   3,   3,   1,0.99503, -14.9551,1.05000,0.95000,1.10000,0.90000
   187,'C187        ',  16.0000,1,   3,   3,   1,1.02140, -12.8871,1.05000,0.95000,1.10000,0.90000
   188,'C188        ', 138.0000,2,   3,   3,   1,1.00788, -10.8217,1.05000,0.95000,1.10000,0.90000
   189,'C189        ', 138.0000,1,   3,   3,   1,0.99296,  -7.9599,1.05000,0.95000,1.10000,0.90000
   190,'C190        ', 138.0000,1,   3,   3,   1,0.97798, -19.2740,1.05000,0.95000,1.10000,0.90000
   191,'C191        ', 138.0000,1,   3,   3,   1,0.98954, -15.4689,1.05000,0.95000,1.10000,0.90000
   192,'C192        ', 138.0000,1,   3,   3,   1,0.99783, -13.7310,1.05000,0.95000,1.10000,0.90000
   193,'C193        ', 138.0000,1,   3,   3,   1,0.99829, -14.3334,1.05000,0.95000,1.10000,0.90000
   194,'C194        ', 138.0000,2,   3,   3,   1,0.98772, -15.9130,1.05000,0.95000,1.10000,0.90000
   195,'C195        ', 138.0000,2,   3,   3,   1,1.00788,  -4.8702,1.05000,0.95000,1.10000,0.90000
   196,'C196        ', 138.0000,1,   3,   3,   1,0.99153,  -8.1539,1.05000,0.95000,1.10000,0.90000
   197,'C197        ', 138.0000,1,   3,   3,   1,0.99259,  -7.9930,1.05000,0.95000,1.10000,0.90000
   198,'C198        ', 138.0000,1,   3,   3,   1,1.00680,  -4.5493,1.05000,0.95000,1.10000,0.90000
   199,'C199        ', 138.0000,1,   3,   3,   1,0.99684,  -7.5081,1.05000,0.95000,1.10000,0.90000
   200,'C200        ', 138.0000,1,   3,   3,   1,0.99679,  -7.4041,1.05000,0.95000,1.10000,0.90000
...
0 / END OF BUS DATA, BEGIN LOAD DATA
     2,'99',0,   1,   1,    13.121,    -7.435,     0.000,     0.000,     0.000,     0.000,   1,1,0
     3,'1 ',1,   1,   1,     1.918,     1.318,     0.000,     0.000,     0.000,     0.000,   1,1,0
     4,'99',0,   1,   1,    26.870,    -9.742,     0.000,     0.000,     0.000,     0.000,   1,1,0
     6,'99',0,   1,   1,    79.520,    41.295,     0.000,     0.000,     0.000,     0.000,   1,1,0
     9,'1 ',1,   1,   1,    12.558,    25.676,     0.000,     0.000,     0.000,     0.000,   1,1,0
     9,'99',1,   1,   1,   140.127,   -97.189,     0.000,     0.000,     0.000,     0.000,   1,1,0
    10,'1 ',1,   1,   1,    28.650,    50.379,     0.000,     0.000,     0.000,     0.000,   1,1,0
    11,'1 ',1,   1,   1,     8.632,     5.182,     0.000,     0.000,     0.000,     0.000,   1,1,0
    12,'1 ',1,   1,   1,     1.380,     2.760,     0.000,     0.000,     0.000,     0.000,   1,1,0
    12,'99',1,   1,   1,    13.102,     4.616,     0.000,     0.000,     0.000,     0.000,   1,1,0
    13,'1 ',1,   1,   1,     4.368,     1.718,     0.000,     0.000,     0.000,     0.000,   1,1,0
    14,'1 ',1,   1,   1,     3.022,     0.676,     0.000,     0.000,     0.000,     0.000,   1,1,0
    14,'99',1,   1,   1,    11.085,     4.735,     0.000,     0.000,     0.000,     0.000,   1,1,0
    15,'1 ',1,   1,   1,     0.297,     0.069,     0.000,     0.000,     0.000,     0.000,   1,1,0
    17,'1 ',1,   1,   1,     7.369,     3.188,     0.000,     0.000,     0.000,     0.000,   1,1,0
    18,'1 ',1,   1,   1,     1.697,     0.552,     0.000,     0.000,     0.000,     0.000,   1,1,0
    19,'1 ',1,   1,   1,     1.035,     0.345,     0.000,     0.000,     0.000,     0.000,   1,1,0
    20,'1 ',1,   1,   1,     1.104,    -0.373,     0.000,     0.000,     0.000,     0.000,   1,1,0
    20,'99',1,   1,   1,    13.070,   -24.183,     0.000,     0.000,     0.000,     0.000,   1,1,0
    21,'1 ',1,   1,   1,    10.054,     2.139,     0.000,     0.000,     0.000,     0.000,   1,1,0
    23,'1 ',1,   1,   1,    27.601,     0.000,     0.000,     0.000,     0.000,     0.000,   1,1,0
    23,'99',1,   1,   1,     1.729,    -8.879,     0.000,     0.000,     0.000,     0.000,   1,1,0
    24,'1 ',1,   1,   1,     5.893,     3.464,     0.000,     0.000,     0.000,     0.000,   1,1,0
    25,'1 ',1,   1,   1,     0.000,    -0.276,     0.000,     0.000,     0.000,     0.000,   1,1,0
    26,'1 ',1,   1,   1,    24.434,     8.701,     0.000,     0.000,     0.000,     0.000,   1,1,0
    27,'1 ',1,   1,   1,     3.098,     1.035,     0.000,     0.000,     0.000,     0.000,   1,1,0
    29,'1 ',1,   1,   1,     6.562,     2.560,     0.000,     0.000,     0.000,     0.000,   1,1,0
    31,'1 ',1,   1,   1,     3.388,     1.180,     0.000,     0.000,     0.000,     0.000,   1,1,0
    32,'1 ',1,   1,   1,     4.865,     2.422,     0.000,     0.000,     0.000,     0.000,   1,1,0
    33,'1 ',1,   1,   1,     4.865,     3.188,     0.000,     0.000,     0.000,     0.000,   1,1,0
    35,'1 ',1,   1,   1,     1.104,     0.345,     0.000,     0.000,     0.000,     0.000,   1,1,0
    39,'1 ',1,   1,   1,     3.250,     0.331,     0.000,     0.000,     0.000,     0.000,   1,1,0
    39,'99',0,   1,   1,    12.258,    -0.483,     0.000,     0.000,     0.000,     0.000,   1,1,0
    41,'1 ',1,   1,   1,     1.180,     0.414,     0.000,     0.000,     0.000,     0.000,   1,1,0
    42,'1 ',1,   1,   1,     4.202,     0.621,     0.000,     0.000,     0.000,     0.000,   1,1,0
    43,'99',0,   1,   1,    14.328,     3.859,     0.000,     0.000,     0.000,     0.000,   1,1,0
    44,'1 ',1,   1,   1,     3.071,     0.538,     0.000,     0.000,     0.000,     0.000,   1,1,0
    44,'99',1,   1,   1,     7.865,     5.195,     0.000,     0.000,     0.000,     0.000,   1,1,0
    45,'1 ',1,   1,   1,     3.416,     1.573,     0.000,     0.000,     0.000,     0.000,   1,1,0
    46,'1 ',1,   1,   1,     6.417,     2.153,     0.000,     0.000,     0.000,     0.000,   1,1,0
    46,'99',1,   1,   1,    19.243,     8.614,     0.000,     0.000,     0.000,     0.000,   1,1,0
    47,'1 ',1,   1,   1,     8.080,     2.891,     0.000,     0.000,     0.000,     0.000,   1,1,0
    48,'1 ',1,   1,   1,     0.000,     0.104,     0.000,     0.000,     0.000,     0.000,   1,1,0
    49,'1 ',1,   1,   1,    12.365,     2.905,     0.000,     0.000,     0.000,     0.000,   1,1,0
    49,'99',0,   1,   1,    23.502,    -4.087,     0.000,     0.000,     0.000,     0.000,   1,1,0
    52,'1 ',1,   1,   1,    12.828,     4.085,     0.000,     0.000,     0.000,     0.000,   1,1,0
    53,'1 ',1,   1,   1,     5.465,     2.222,     0.000,     0.000,     0.000,     0.000,   1,1,0
    54,'1 ',1,   1,   1,     2.657,     1.456,     0.000,     0.000,     0.000,     0.000,   1,1,0
    55,'1 ',1,   1,   1,     0.221,     0.000,     0.000,     0.000,     0.000,     0.000,   1,1,0
    56,'1 ',1,   1,   1,     4.878,     1.808,     0.000,     0.000,     0.000,     0.000,   1,1,0
    57,'1 ',1,   1,   1,     2.877,     1.028,     0.000,     0.000,     0.000,     0.000,   1,1,0
    58,'1 ',1,   1,   1,     2.732,     0.959,     0.000,     0.000,     0.000,     0.000,   1,1,0
    58,'99',1,   1,   1,    31.667,    -5.014,     0.000,     0.000,     0.000,     0.000,   1,1,0
    59,'1 ',1,   1,   1,     4.575,     1.539,     0.000,     0.000,     0.000,     0.000,   1,1,0
    60,'1 ',1,   1,   1,     1.035,     0.276,     0.000,     0.000,     0.000,     0.000,   1,1,0
    61,'99',1,   1,   1,     6.196,    16.744,     0.000,     0.000,     0.000,     0.000,   1,1,0
    63,'1 ',1,   1,   1,     3.243,     1.070,     0.000,     0.000,     0.000,     0.000,   1,1,0
    64,'1 ',1,   1,   1,     1.622,     0.552,     0.000,     0.000,     0.000,     0.000,   1,1,0
    65,'1 ',1,   1,   1,     1.477,     0.483,     0.000,     0.000,     0.000,     0.000,   1,1,0
    66,'1 ',1,   1,   1,     5.099,     1.884,     0.000,     0.000,     0.000,     0.000,   1,1,0
    67,'1 ',1,   1,   1,     6.659,     2.574,     0.000,     0.000,     0.000,     0.000,   1,1,0
    68,'1 ',1,   1,   1,    11.868,    23.330,     0.000,     0.000,     0.000,     0.000,   1,1,0
    70,'1 ',1,   1,   1,    17.251,     4.830,     0.000,     0.000,     0.000,     0.000,   1,1,0
    75,'1 ',1,   2,   2,     8.280,    20.701,     0.000,     0.000,     0.000,     0.000,   1,1,0
    76,'1 ',1,   2,   2,    13.738,    25.234,     0.000,     0.000,     0.000,     0.000,   1,1,0
    77,'1 ',1,   2,   2,     8.280,    20.701,     0.000,     0.000,     0.000,     0.000,   1,1,0
    83,'1 ',1,   2,   2,     7.901,     1.822,     0.000,     0.000,     0.000,     0.000,   1,1,0
    84,'1 ',1,   2,   2,    17.879,     4.430,     0.000,     0.000,     0.000,     0.000,   1,1,0
    86,'1 ',1,   2,   2,     4.168,     1.670,     0.000,     0.000,     0.000,     0.000,   1,1,0
    86,'99',0,   2,   2,     9.663,     6.313,     0.000,     0.000,     0.000,     0.000,   1,1,0
    87,'1 ',1,   2,   2,     2.084,     0.876,     0.000,     0.000,     0.000,     0.000,   1,1,0
    88,'1 ',1,   2,   2,     4.575,     0.442,     0.000,     0.000,     0.000,     0.000,   1,1,0
    89,'1 ',1,   2,   2,     8.618,     3.347,     0.000,     0.000,     0.000,     0.000,   1,1,0
    90,'1 ',1,   2,   2,     2.505,     0.366,     0.000,     0.000,     0.000,     0.000,   1,1,0
    91,'1 ',1,   2,   2,     2.443,     0.800,     0.000,     0.000,     0.000,     0.000,   1,1,0
    92,'1 ',1,   2,   2,    13.262,    22.702,     0.000,     0.000,     0.000,     0.000,   1,1,0
    94,'1 ',1,   2,   2,     1.580,     0.580,     0.000,     0.000,     0.000,     0.000,   1,1,0
    95,'1 ',1,   2,   2,     3.236,     1.318,     0.000,     0.000,     0.000,     0.000,   1,1,0
    96,'1 ',1,   2,   2,     0.069,    -0.545,     0.000,     0.000,     0.000,     0.000,   1,1,0
    97,'1 ',1,   2,   2,     0.069,     0.035,     0.000,     0.000,     0.000,     0.000,   1,1,0
    97,'99',1,   2,   2,     3.778,     1.323,     0.000,     0.000,     0.000,     0.000,   1,1,0
    98,'1 ',1,   2,   2,     2.077,     3.457,     0.000,     0.000,     0.000,     0.000,   1,1,0
    98,'99',1,   2,   2,    11.885,    14.153,     0.000,     0.000,     0.000,     0.000,   1,1,0
    99,'1 ',1,   2,   2,     0.007,     0.007,     0.000,     0.000,     0.000,     0.000,   1,1,0
    99,'99',1,   2,   2,     8.664,     6.390,     0.000,     0.000,     0.000,     0.000,   1,1,0
   100,'1 ',1,   2,   2,     8.908,     3.271,     0.000,     0.000,     0.000,     0.000,   1,1,0
   101,'1 ',1,   2,   2,     6.466,     2.615,     0.000,     0.000,     0.000,     0.000,   1,1,0
   102,'1 ',1,   2,   2,     9.771,     3.926,     0.000,     0.000,     0.000,     0.000,   1,1,0
   103,'1 ',1,   2,   2,     7.866,     2.581,     0.000,     0.000,     0.000,     0.000,   1,1,0
   104,'1 ',1,   2,   2,     7.183,     2.622,     0.000,     0.000,     0.000,     0.000,   1,1,0
   107,'1 ',1,   2,   2,     3.788,     0.442,     0.000,     0.000,     0.000,     0.000,   1,1,0
   108,'1 ',1,   2,   2,     4.740,     1.380,     0.000,     0.000,     0.000,     0.000,   1,1,0
   109,'1 ',1,   2,   2,     3.878,     1.601,     0.000,     0.000,     0.000,     0.000,   1,1,0
   110,'1 ',1,   2,   2,     2.870,     1.166,     0.000,     0.000,     0.000,     0.000,   1,1,0
   111,'1 ',1,   2,   2,     1.007,     0.366,     0.000,     0.000,     0.000,     0.000,   1,1,0
   112,'1 ',1,   2,   2,     1.235,     0.524,     0.000,     0.000,     0.000,     0.000,   1,1,0
   113,'1 ',1,   2,   2,     1.152,     0.511,     0.000,     0.000,     0.000,     0.000,   1,1,0
   114,'1 ',1,   2,   2,     2.146,     0.593,     0.000,     0.000,     0.000,     0.000,   1,1,0
   115,'1 ',1,   2,   2,     3.291,     0.373,     0.000,     0.000,     0.000,     0.000,   1,1,0
   116,'1 ',1,   2,   2,     4.885,     1.235,     0.000,     0.000,     0.000,     0.000,   1,1,0
   117,'1 ',1,   2,   2,     7.901,     3.202,     0.000,     0.000,     0.000,     0.000,   1,1,0
   118,'1 ',1,   2,   2,     5.817,     2.325,     0.000,     0.000,     0.000,     0.000,   1,1,0
   119,'1 ',1,   2,   2,     4.671,    -1.173,     0.000,     0.000,     0.000,     0.000,   1,1,0
   120,'1 ',1,   2,   2,    15.091,     8.736,     0.000,     0.000,     0.000,     0.000,   1,1,0
   121,'1 ',1,   2,   2,    17.237,    16.002,     0.000,     0.000,     0.000,     0.000,   1,1,0
   122,'1 ',1,   2,   2,    10.054,     2.912,     0.000,     0.000,     0.000,     0.000,   1,1,0
   123,'1 ',1,   2,   2,    11.130,     3.271,     0.000,     0.000,     0.000,     0.000,   1,1,0
   124,'1 ',1,   2,   2,     3.685,     1.221,     0.000,     0.000,     0.000,     0.000,   1,1,0
   125,'1 ',1,   2,   2,     3.912,     4.030,     0.000,     0.000,     0.000,     0.000,   1,1,0
   126,'1 ',1,   2,   2,     5.313,     2.180,     0.000,     0.000,     0.000,     0.000,   1,1,0
   128,'1 ',1,   2,   2,     5.106,     1.753,     0.000,     0.000,     0.000,     0.000,   1,1,0
   129,'1 ',1,   2,   2,     0.828,     0.324,     0.000,     0.000,     0.000,     0.000,   1,1,0
   130,'1 ',1,   2,   2,     3.947,     1.601,     0.000,     0.000,     0.000,     0.000,   1,1,0
   131,'1 ',1,   2,   2,     4.023,     1.601,     0.000,     0.000,     0.000,     0.000,   1,1,0
   132,'1 ',1,   2,   2,     4.313,     1.201,     0.000,     0.000,     0.000,     0.000,   1,1,0
   133,'1 ',1,   2,   2,     4.313,     1.201,     0.000,     0.000,     0.000,     0.000,   1,1,0
   134,'1 ',1,   2,   2,     0.435,     0.145,     0.000,     0.000,     0.000,     0.000,   1,1,0
   135,'1 ',1,   2,   2,     9.060,     3.643,     0.000,     0.000,     0.000,     0.000,   1,1,0
   136,'1 ',1,   2,   2,     6.466,     2.491,     0.000,     0.000,     0.000,     0.000,   1,1,0
   137,'1 ',1,   2,   2,     3.229,     1.311,     0.000,     0.000,     0.000,     0.000,   1,1,0
   138,'1 ',1,   2,   2,     4.458,     1.753,     0.000,     0.000,     0.000,     0.000,   1,1,0
   139,'1 ',1,   2,   2,    15.015,     4.209,     0.000,     0.000,     0.000,     0.000,   1,1,0
   140,'1 ',1,   2,   2,     1.435,     0.580,     0.000,     0.000,     0.000,     0.000,   1,1,0
   141,'1 ',1,   2,   2,     1.870,     0.725,     0.000,     0.000,     0.000,     0.000,   1,1,0
   142,'1 ',1,   2,   2,     2.801,     0.366,     0.000,     0.000,     0.000,     0.000,   1,1,0
   146,'1 ',1,   2,   2,     5.817,     2.111,     0.000,     0.000,     0.000,     0.000,   1,1,0
   147,'1 ',1,   2,   2,     2.588,     0.580,     0.000,     0.000,     0.000,     0.000,   1,1,0
   148,'1 ',1,   2,   2,    19.466,     7.128,     0.000,     0.000,     0.000,     0.000,   1,1,0
   149,'1 ',1,   2,   2,     1.076,     0.435,     0.000,     0.000,     0.000,     0.000,   1,1,0
   150,'1 ',1,   2,   2,   437.475,     0.000,     0.000,     0.000,     0.000,     0.000,   1,1,0
   151,'99',1,   3,   3,    56.237,    59.270,     0.000,     0.000,     0.000,     0.000,   1,1,0
   156,'99',0,   3,   3,   154.603,    71.724,     0.000,     0.000,     0.000,     0.000,   1,1,0
   162,'99',1,   3,   3,    23.953,    41.512,     0.000,     0.000,     0.000,     0.000,   1,1,0
   165,'1 ',1,   3,   3,     7.590,    27.601,     0.000,     0.000,     0.000,     0.000,   1,1,0
   166,'1 ',1,   3,   3,     3.450,     6.900,     0.000,     0.000,     0.000,     0.000,   1,1,0
   167,'1 ',1,   3,   3,     4.782,     2.146,     0.000,     0.000,     0.000,     0.000,   1,1,0
   168,'1 ',1,   3,   3,    10.109,     0.690,     0.000,     0.000,     0.000,     0.000,   1,1,0
   169,'1 ',1,   3,   3,     5.617,     0.911,     0.000,     0.000,     0.000,     0.000,   1,1,0
   170,'1 ',1,   3,   3,     9.778,     2.912,     0.000,     0.000,     0.000,     0.000,   1,1,0
   171,'1 ',1,   3,   3,     2.912,     0.690,     0.000,     0.000,     0.000,     0.000,   1,1,0
   172,'99',1,   3,   3,    91.020,    39.371,     0.000,     0.000,     0.000,     0.000,   1,1,0
   175,'1 ',1,   3,   3,     3.602,     1.456,     0.000,     0.000,     0.000,     0.000,   1,1,0
   176,'1 ',1,   3,   3,     1.801,     0.690,     0.000,     0.000,     0.000,     0.000,   1,1,0
   177,'1 ',1,   3,   3,     0.007,     0.007,     0.000,     0.000,     0.000,     0.000,   1,1,0
   178,'1 ',1,   3,   3,     0.007,     0.007,     0.000,     0.000,     0.000,     0.000,   1,1,0
   179,'1 ',1,   3,   3,    10.813,     3.602,     0.000,     0.000,     0.000,     0.000,   1,1,0
   180,'1 ',1,   3,   3,    11.579,     3.257,     0.000,     0.000,     0.000,     0.000,   1,1,0
   181,'1 ',1,   3,   3,     2.912,     0.345,     0.000,     0.000,     0.000,     0.000,   1,1,0
   182,'1 ',1,   3,   3,     7.487,     0.690,     0.000,     0.000,     0.000,     0.000,   1,1,0
   183,'1 ',1,   3,   3,    10.123,     2.146,     0.000,     0.000,     0.000,     0.000,   1,1,0
   184,'1 ',1,   3,   3,     5.203,     0.690,     0.000,     0.000,     0.000,     0.000,   1,1,0
   185,'1 ',1,   3,   3,     1.456,     0.345,     0.000,     0.000,     0.000,     0.000,   1,1,0
   186,'1 ',1,   3,   3,     3.954,     0.690,     0.000,     0.000,     0.000,     0.000,   1,1,0
   188,'1 ',1,   3,   3,     6.521,     1.801,     0.000,     0.000,     0.000,     0.000,   1,1,0
   189,'1 ',1,   3,   3,     2.912,     0.690,     0.000,     0.000,     0.000,     0.000,   1,1,0
   191,'1 ',1,   3,   3,    10.813,     1.801,     0.000,     0.000,     0.000,     0.000,   1,1,0
   192,'1 ',1,   3,   3,    13.725,     4.713,     0.000,     0.000,     0.000,     0.000,   1,1,0
   193,'1 ',1,   3,   3,     5.755,     1.870,     0.000,     0.000,     0.000,     0.000,   1,1,0
   194,'1 ',1,   3,   3,    11.579,     4.368,     0.000,     0.000,     0.000,     0.000,   1,1,0
   195,'1 ',1,   3,   3,    10.123,     2.146,     0.000,     0.000,     0.000,     0.000,   1,1,0
   196,'1 ',1,   3,   3,     3.602,     0.000,     0.000,     0.000,     0.000,     0.000,   1,1,0
   196,'99',1,   3,   3,     0.402,    -0.155,     0.000,     0.000,     0.000,     0.000,   1,1,0
   197,'1 ',1,   3,   3,     5.058,     1.456,     0.000,     0.000,     0.000,     0.000,   1,1,0
   198,'1 ',1,   3,   3,     3.602,     0.345,     0.000,     0.000,     0.000,     0.000,   1,1,0
   201,'1 ',1,   3,   3,     6.521,     0.690,     0.000,     0.000,     0.000,     0.000,   1,1,0
   202,'1 ',1,   3,   3,     5.755,     0.690,     0.000,     0.000,     0.000,     0.000,   1,1,0
   202,'99',1,   3,   3,     9.095,    -0.248,     0.000,     0.000,     0.000,     0.000,   1,1,0
   203,'1 ',1,   3,   3,     7.211,     0.690,     0.000,     0.000,     0.000,     0.000,   1,1,0
   204,'1 ',1,   3,   3,     5.755,     2.146,     0.000,     0.000,     0.000,     0.000,   1,1,0
   206,'1 ',1,   3,   3,    10.123,     2.146,     0.000,     0.000,     0.000,     0.000,   1,1,0
   207,'1 ',1,   3,   3,    21.004,     2.912,     0.000,     0.000,     0.000,     0.000,   1,1,0
   208,'1 ',1,   3,   3,    13.035,     3.257,     0.000,     0.000,     0.000,     0.000,   1,1,0
   209,'1 ',1,   3,   3,     7.970,     0.690,     0.000,     0.000,     0.000,     0.000,   1,1,0
   210,'1 ',1,   3,   3,    12.269,     2.912,     0.000,     0.000,     0.000,     0.000,   1,1,0
   212,'99',1,   3,   3,     0.184,    -1.040,     0.000,     0.000,     0.000,     0.000,   1,1,0
   213,'99',1,   3,   3,     2.097,    -0.593,     0.000,     0.000,     0.000,     0.000,   1,1,0
   218,'99',1,   4,   4,     9.234,    89.698,     0.000,     0.000,     0.000,     0.000,   1,1,0
   221,'99',0,   4,   4,    50.269,    14.410,     0.000,     0.000,     0.000,     0.000,   1,1,0
   222,'99',1,   4,   4,    67.588,    41.804,     0.000,     0.000,     0.000,     0.000,   1,1,0
   223,'1 ',1,   4,   4,     6.900,    30.361,     0.000,     0.000,     0.000,     0.000,   1,1,0
   224,'1 ',1,   4,   4,     6.900,    30.361,     0.000,     0.000,     0.000,     0.000,   1,1,0
   225,'1 ',1,   4,   4,    12.558,    25.676,     0.000,     0.000,     0.000,     0.000,   1,1,0
   225,'99',0,   4,   4,     4.862,  -115.845,     0.000,     0.000,     0.000,     0.000,   1,1,0
   226,'99',0,   4,   4,    40.753,   -19.411,     0.000,     0.000,     0.000,     0.000,   1,1,0
   227,'1 ',1,   4,   4,     0.000,    -0.545,     0.000,     0.000,     0.000,     0.000,   1,1,0
   228,'1 ',1,   4,   4,     0.000,    -0.545,     0.000,     0.000,     0.000,     0.000,   1,1,0
   229,'1 ',1,   4,   4,     2.505,     0.897,     0.000,     0.000,     0.000,     0.000,   1,1,0
   231,'99',1,   4,   4,    20.286,    -6.730,     0.000,     0.000,     0.000,     0.000,   1,1,0
   232,'99',0,   4,   4,    15.184,     4.564,     0.000,     0.000,     0.000,     0.000,   1,1,0
   233,'1 ',1,   4,   4,     7.369,     3.188,     0.000,     0.000,     0.000,     0.000,   1,1,0
   234,'1 ',1,   4,   4,     3.761,     2.836,     0.000,     0.000,     0.000,     0.000,   1,1,0
   235,'1 ',1,   4,   4,     0.145,     0.159,     0.000,     0.000,     0.000,     0.000,   1,1,0
   235,'99',1,   4,   4,    44.403,    10.780,     0.000,     0.000,     0.000,     0.000,   1,1,0
   236,'1 ',1,   4,   4,     1.104,    -0.373,     0.000,     0.000,     0.000,     0.000,   1,1,0
   238,'1 ',1,   4,   4,    39.331,    13.317,     0.000,     0.000,     0.000,     0.000,   1,1,0
   241,'99',1,   4,   4,    26.706,     5.504,     0.000,     0.000,     0.000,     0.000,   1,1,0
   242,'1 ',1,   4,   4,     0.814,     0.138,     0.000,     0.000,     0.000,     0.000,   1,1,0
   243,'99',1,   4,   4,    13.007,    -6.774,     0.000,     0.000,     0.000,     0.000,   1,1,0
   244,'1 ',1,   4,   4,     3.098,     1.035,     0.000,     0.000,     0.000,     0.000,   1,1,0
   246,'1 ',1,   4,   4,     6.900,    30.361,     0.000,     0.000,     0.000,     0.000,   1,1,0
...
0 / END OF LOAD DATA, BEGIN FIXED SHUNT DATA
     2,'99',1,     0.000,    -7.133
     4,'99',1,     0.000,    -9.601
     6,'99',1,     0.000,    41.987
    32,'99',1,     0.000,    -1.306
    39,'99',1,     0.000,    -0.488
    43,'99',1,     0.000,     3.712
    49,'99',1,     0.000,    -4.149
    53,'99',1,     0.000,   -61.980
    67,'99',1,     0.000,     3.708
    86,'99',1,     0.000,     6.325
    90,'99',1,     0.000,    -0.019
   153,'99',1,     0.000,   -11.354
   156,'99',1,     0.000,    75.294
   157,'99',1,     0.000,   -27.072
   158,'99',1,     0.000,  -322.112
   161,'99',1,     0.000,  -124.239
   221,'99',1,     0.000,    13.922
   225,'99',1,     0.000,  -110.360
   226,'99',1,     0.000,   -18.625
   232,'99',1,     0.000,     4.355
   245,'99',1,     0.000,   -10.356
   253,'99',1,     0.000,     6.238
   255,'99',1,     0.000,     7.309
   271,'99',1,     0.000,     5.929
   275,'99',1,     0.000,    84.787
   277,'99',1,     0.000,   110.690
   281,'99',1,     0.000,     2.151
   285,'99',1,     0.000,  -161.346
   309,'99',1,     0.000,    22.813
   348,'99',1,     0.000,   -12.059
   374,'99',1,     0.000,  -345.603
   466,'99',1,     0.000,  -104.053
   471,'99',1,     0.000,  -290.111
   478,'99',1,     0.000,    64.761
   577,'99',1,     0.000,    -7.123
   579,'99',1,     0.000,    -9.607
   580,'99',1,     0.000,  -102.360
   581,'99',1,     0.000,    47.641
   583,'99',1,     0.000,    -2.918
   585,'99',1,     0.000,    13.934
   589,'99',1,     0.000,     3.923
   623,'99',1,     0.000,     8.010
   624,'99',1,     0.000,    -7.008
   636,'99',1,     0.000,     0.009
   672,'99',1,     0.000,    12.795
   690,'99',1,     0.000,     6.841
   695,'99',1,     0.000,    16.470
   698,'99',1,     0.000,   160.079
   703,'99',1,     0.000,   -47.656
   718,'99',1,     0.000,   -21.734
   720,'99',1,     0.000,    20.121
   723,'99',1,     0.000,     8.700
   750,'99',1,     0.000,    13.261
   760,'99',1,     0.000,    64.443
   766,'99',1,     0.000,   115.888
   817,'99',1,     0.000,    11.465
   869,'99',1,     0.000,     5.172
   883,'99',1,     0.000,    11.098
   939,'99',1,     0.000,    11.802
   942,'99',1,     0.000,     7.486
   979,'99',1,     0.000,    14.306
   983,'99',1,     0.000,    -5.456
   995,'99',1,     0.000,    14.167
  1012,'99',1,     0.000,     2.712
  1013,'99',1,     0.000,   -10.135
  1054,'99',1,     0.000,     2.499
  1096,'99',1,     0.000,   -29.377
  1135,'99',1,     0.000,    16.277
  1226,'99',1,     0.000,   307.861
  1241,'99',1,     0.000,    -9.766
  1245,'99',1,     0.000,    28.800
  1266,'99',1,     0.000,     1.091
  1267,'99',1,     0.000,   -13.276
  1351,'99',1,     0.000,     9.622
  1359,'99',1,     0.000,    44.093
  1376,'99',1,     0.000,    62.250
  1377,'99',1,     0.000,    37.157
  1384,'99',1,     0.000,    -0.278
  1400,'99',1,     0.000,    13.892
  1495,'99',1,     0.000,    -1.174
  1496,'99',1,     0.000,    12.766
  1525,'99',1,     0.000,   -18.886
  1533,'99',1,     0.000,   -95.945
  1557,'99',1,     0.000,   -31.028
  1565,'99',1,     0.000,   -52.104
  1621,'99',1,     0.000,   -73.418
  1807,'99',1,     0.000,   -15.963
  1877,'99',1,     0.000,    -5.368
  1878,'99',1,     0.000,    12.724
  1880,'99',1,     0.000,    -5.367
  1923,'99',1,     0.000,    -9.083
  1951,'99',1,     0.000,     0.756
  1979,'99',1,     0.000,     0.624
  1998,'99',1,     0.000,     4.345
  1999,'99',1,     0.000,    17.297
  2083,'99',1,     0.000,    28.513
  2093,'99',1,     0.000,   103.474
  2095,'99',1,     0.000,   -13.183
  2109,'99',1,     0.000,   -38.789
  2111,'99',1,     0.000,    -2.161
  2129,'99',1,     0.000,    -0.089
  2146,'99',1,     0.000,   -19.827
  2172,'99',1,     0.000,     2.864
  2174,'99',1,     0.000,     9.100
  2179,'99',1,     0.000,    94.807
  2192,'99',1,     0.000,    -0.371
  2197,'99',1,     0.000,     5.815
  2224,'99',1,     0.000,     1.293
  2230,'99',1,     0.000,   -11.696
  2244,'99',1,     0.000,     3.661
  2246,'99',1,     0.000,   -32.703
  2251,'99',1,     0.000,    17.159
  2258,'99',1,     0.000,     9.498
  2262,'99',1,     0.000,    -0.418
  2269,'99',1,     0.000,  -361.197
  2287,'99',1,     0.000,   191.001
  2293,'99',1,     0.000,  -120.311
  2296,'99',1,     0.000,     2.477
  2297,'99',1,     0.000,  -130.348
  2309,'99',1,     0.000,    30.957
  2311,'99',1,     0.000,   -63.287
0 / END OF FIXED SHUNT DATA, BEGIN GENERATOR DATA
     9,'1 ',     0.000,     0.000,   230.625,  -230.625,1.00788,     0,   100.000, 0.00000E+0, 1.80000E-1, 0.00000E+0, 0.00000E+0,1.00000,0,  100.0,   320.312,   135.000,   1,1.0000,0,1,0,1,0,1,0,1
    10,'1 ',   346.191,    -7.526,   383.901,  -383.901,1.00358,     0,   100.000, 0.00000E+0, 1.80000E-1, 0.00000E+0, 0.00000E+0,1.00000,1,  100.0,   533.196,   171.516,   1,1.0000,0,1,0,1,0,1,0,1
    10,'2 ',   326.068,    -7.088,   399.796,  -399.796,1.00358,     0,   100.000, 0.00000E+0, 1.80000E-1, 0.00000E+0, 0.00000E+0,1.00000,1,  100.0,   555.273,   178.876,   1,1.0000,0,1,0,1,0,1,0,1
    11,'1 ',     0.000,     0.000,    16.000,   -16.000,1.00788,     0,   100.000, 0.00000E+0, 2.00000E-1, 0.00000E+0, 0.00000E+0,1.00000,0,  100.0,    55.000,    40.000,   1,1.0000,0,1,0,1,0,1,0,1
    11,'2 ',     0.000,     0.000,    49.500,   -49.500,1.00788,     0,   100.000, 0.00000E+0, 2.00000E-1, 0.00000E+0, 0.00000E+0,1.00000,0,  100.0,    68.750,    35.833,   1,1.0000,0,1,0,1,0,1,0,1
    12,'1 ',     0.000,     0.000,    49.500,   -49.500,1.00788,     0,   100.000, 0.00000E+0, 2.00000E-1, 0.00000E+0, 0.00000E+0,1.00000,0,  100.0,    68.750,    35.833,   1,1.0000,0,1,0,1,0,1,0,1
    20,'1 ',     0.000,     0.000,    16.667,   -16.667,1.02455,     0,   100.000, 0.00000E+0, 2.00000E-1, 0.00000E+0, 0.00000E+0,1.00000,0,  100.0,    50.000,    38.000,   1,1.0000,0,1,0,1,0,1,0,1
    24,'99',     0.085,    11.197,   650.000,  -650.000,1.00540,     0,   100.000, 0.00000E+0, 1.00000E+0, 0.00000E+0, 0.00000E+0,1.00000,1,  100.0,    93.131,     0.000,   1,1.0000,0,1,0,1,0,1,0,1
    25,'1 ',     0.000,     0.000,     8.000,    -8.000,1.02455,     0,   100.000, 0.00000E+0, 2.00000E-1, 0.00000E+0, 0.00000E+0,1.00000,0,  100.0,    24.000,     5.000,   1,1.0000,0,1,0,1,0,1,0,1
    25,'2 ',     0.000,     0.000,     5.667,    -5.667,1.02455,     0,   100.000, 0.00000E+0, 2.00000E-1, 0.00000E+0, 0.00000E+0,1.00000,0,  100.0,    17.000,     4.000,   1,1.0000,0,1,0,1,0,1,0,1
    26,'1 ',     0.000,     0.000,    13.500,   -13.500,1.00788,     0,   100.000, 0.00000E+0, 2.00000E-1, 0.00000E+0, 0.00000E+0,1.00000,0,  100.0,    18.750,     3.000,   1,1.0000,0,1,0,1,0,1,0,1
    26,'2 ',     0.000,     0.000,     5.000,    -5.000,1.00788,     0,   100.000, 0.00000E+0, 2.00000E-1, 0.00000E+0, 0.00000E+0,1.00000,0,  100.0,    15.000,     3.000,   1,1.0000,0,1,0,1,0,1,0,1
    26,'3 ',     0.000,     0.000,     5.000,    -5.000,1.00788,     0,   100.000, 0.00000E+0, 2.00000E-1, 0.00000E+0, 0.00000E+0,1.00000,0,  100.0,    15.000,     3.000,   1,1.0000,0,1,0,1,0,1,0,1
    32,'99',     6.013,    -1.370,    33.333,   -33.333,1.02382,     0,   100.000, 0.00000E+0, 1.00000E+0, 0.00000E+0, 0.00000E+0,1.00000,0,  100.0,   265.000,     6.013,   1,1.0000,0,1,0,1,0,1,0,1
    46,'1 ',     0.000,     0.000,     4.000,    -4.000,0.99727,     0,   100.000, 0.00000E+0, 2.00000E-1, 0.00000E+0, 0.00000E+0,1.00000,0,  100.0,    12.000,     0.000,   1,1.0000,0,1,0,1,0,1,0,1
    46,'2 ',     0.000,    10.800,    10.800,   -10.800,0.99727,     0,   100.000, 0.00000E+0, 2.00000E-1, 0.00000E+0, 0.00000E+0,1.00000,1,  100.0,    15.000,     0.000,   1,1.0000,0,1,0,1,0,1,0,1
    53,'99',    12.674,   -62.519,    33.333,   -33.333,1.00434,     0,   100.000, 0.00000E+0, 1.00000E+0, 0.00000E+0, 0.00000E+0,1.00000,0,  100.0,    27.674,    12.674,   1,1.0000,0,1,0,1,0,1,0,1
    67,'99',     3.326,     3.705,    33.333,   -33.333,1.00356,     0,   100.000, 0.00000E+0, 1.00000E+0, 0.00000E+0, 0.00000E+0,1.00000,0,  100.0,   268.000,     3.326,   1,1.0000,0,1,0,1,0,1,0,1
    68,'1 ',   249.701,     2.562,   230.625,  -230.625,1.00858,     0,   100.000, 0.00000E+0, 1.80000E-1, 0.00000E+0, 0.00000E+0,1.00000,1,  100.0,   320.312,   135.000,   1,1.0000,0,1,0,1,0,1,0,1
    75,'1 ',     0.000,     0.000,   184.500,  -184.500,1.00788,     0,   100.000, 0.00000E+0, 1.80000E-1, 0.00000E+0, 0.00000E+0,1.00000,0,  100.0,   256.250,   135.000,   1,1.0000,0,1,0,1,0,1,0,1
    76,'1 ',     0.000,     0.000,    74.000,   -74.000,1.00788,     0,   100.000, 0.00000E+0, 1.80000E-1, 0.00000E+0, 0.00000E+0,1.00000,0,  100.0,   222.000,    90.000,   1,1.0000,0,1,0,1,0,1,0,1
    76,'2 ',     0.000,     0.000,    68.333,   -68.333,1.00788,     0,   100.000, 0.00000E+0, 1.80000E-1, 0.00000E+0, 0.00000E+0,1.00000,0,  100.0,   205.000,   135.000,   1,1.0000,0,1,0,1,0,1,0,1
    76,'3 ',   232.000,   127.540,   208.800,  -208.800,1.00788,     0,   100.000, 0.00000E+0, 1.80000E-1, 0.00000E+0, 0.00000E+0,1.00000,1,  100.0,   290.000,   100.000,   1,1.0000,0,1,0,1,0,1,0,1
    77,'1 ',     0.000,     0.000,   225.000,  -225.000,1.00260,     0,   100.000, 0.00000E+0, 1.80000E-1, 0.00000E+0, 0.00000E+0,1.00000,0,  100.0,   312.500,    90.000,   1,1.0000,0,1,0,1,0,1,0,1
    77,'99',    97.165,    20.551,   650.000,  -650.000,1.00260,     0,   100.000, 0.00000E+0, 1.00000E+0, 0.00000E+0, 0.00000E+0,1.00000,1,  100.0,   309.292,     0.000,   1,1.0000,0,1,0,1,0,1,0,1
    78,'99',    52.478,   -91.881,   650.000,  -650.000,0.99160,     0,   100.000, 0.00000E+0, 1.00000E+0, 0.00000E+0, 0.00000E+0,1.00000,1,  100.0,   217.319,     0.000,   1,1.0000,0,1,0,1,0,1,0,1
    90,'99',    19.203,    -0.019,    33.333,   -33.333,0.99752,     0,   100.000, 0.00000E+0, 1.00000E+0, 0.00000E+0, 0.00000E+0,1.00000,0,  100.0,    34.203,    19.203,   1,1.0000,0,1,0,1,0,1,0,1
    92,'1 ',   169.200,    11.064,   199.800,  -199.800,1.00542,     0,   100.000, 0.00000E+0, 1.80000E-1, 0.00000E+0, 0.00000E+0,1.00000,1,  100.0,   277.500,    90.000,   1,1.0000,0,1,0,1,0,1,0,1
    95,'1 ',     0.000,     0.000,   258.300,  -258.300,1.00225,     0,   100.000, 0.00000E+0, 2.00000E-1, 0.00000E+0, 0.00000E+0,1.00000,0,  100.0,   358.750,     0.000,   1,1.0000,0,1,0,1,0,1,0,1
    96,'1 ',     0.000,     0.000,     0.333,    -0.333,1.02455,     0,   100.000, 0.00000E+0, 2.00000E-1, 0.00000E+0, 0.00000E+0,1.00000,0,  100.0,   274.000,     0.000,   1,1.0000,0,1,0,1,0,1,0,1
    98,'1 ',     0.000,     0.000,    59.287,   -59.287,1.00358,     0,   100.000, 0.00000E+0, 2.00000E-1, 0.00000E+0, 0.00000E+0,1.00000,0,  100.0,    82.344,    10.000,   1,1.0000,0,1,0,1,0,1,0,1
    98,'2 ',   267.000,   -42.971,   240.300,  -240.300,1.00358,     0,   100.000, 0.00000E+0, 2.00000E-1, 0.00000E+0, 0.00000E+0,1.00000,1,  100.0,   333.750,     2.000,   1,1.0000,0,1,0,1,0,1,0,1
    99,'1 ',   262.000,   -19.665,   235.800,  -235.800,1.00788,     0,   100.000, 0.00000E+0, 2.00000E-1, 0.00000E+0, 0.00000E+0,1.00000,1,  100.0,   327.500,     1.000,   1,1.0000,0,1,0,1,0,1,0,1
    99,'2 ',     0.000,     0.000,     9.667,    -9.667,1.00788,     0,   100.000, 0.00000E+0, 2.00000E-1, 0.00000E+0, 0.00000E+0,1.00000,0,  100.0,    36.000,    21.000,   1,1.0000,0,1,0,1,0,1,0,1
   112,'1 ',     0.000,     0.000,   250.200,  -250.200,1.00358,     0,   100.000, 0.00000E+0, 2.00000E-1, 0.00000E+0, 0.00000E+0,1.00000,0,  100.0,   347.500,     0.000,   1,1.0000,0,1,0,1,0,1,0,1
   112,'2 ',     0.000,     0.000,   259.200,  -259.200,1.00358,     0,   100.000, 0.00000E+0, 2.00000E-1, 0.00000E+0, 0.00000E+0,1.00000,0,  100.0,   360.000,     1.000,   1,1.0000,0,1,0,1,0,1,0,1
   120,'1 ',    20.000,    18.000,    18.000,   -18.000,0.98356,     0,   100.000, 0.00000E+0, 2.00000E-1, 0.00000E+0, 0.00000E+0,1.00000,1,  100.0,    25.000,     5.000,   1,1.0000,0,1,0,1,0,1,0,1
   124,'1 ',     0.000,     0.000,    22.333,   -22.333,1.02455,     0,   100.000, 0.00000E+0, 2.00000E-1, 0.00000E+0, 0.00000E+0,1.00000,0,  100.0,    67.000,    40.000,   1,1.0000,0,1,0,1,0,1,0,1
   125,'1 ',     0.000,     0.000,    58.500,   -58.500,1.00929,     0,   100.000, 0.00000E+0, 2.00000E-1, 0.00000E+0, 0.00000E+0,1.00000,0,  100.0,    81.250,    40.000,   1,1.0000,0,1,0,1,0,1,0,1
   127,'1 ',     0.000,     0.000,    27.900,   -27.900,1.00507,     0,   100.000, 0.00000E+0, 2.00000E-1, 0.00000E+0, 0.00000E+0,1.00000,0,  100.0,    38.750,     0.000,   1,1.0000,0,1,0,1,0,1,0,1
   128,'1 ',     0.000,     0.000,    27.900,   -27.900,1.00507,     0,   100.000, 0.00000E+0, 2.00000E-1, 0.00000E+0, 0.00000E+0,1.00000,0,  100.0,    38.750,     0.000,   1,1.0000,0,1,0,1,0,1,0,1
   135,'1 ',   286.000,   -46.119,   257.400,  -257.400,1.00718,     0,   100.000, 0.00000E+0, 2.00000E-1, 0.00000E+0, 0.00000E+0,1.00000,1,  100.0,   357.500,     1.000,   1,1.0000,0,1,0,1,0,1,0,1
   136,'1 ',     0.000,     0.000,     1.333,    -1.333,1.02455,     0,   100.000, 0.00000E+0, 2.00000E-1, 0.00000E+0, 0.00000E+0,1.00000,0,  100.0,   256.000,     1.000,   1,1.0000,0,1,0,1,0,1,0,1
   136,'2 ',     0.000,     0.000,     6.000,    -6.000,1.02455,     0,   100.000, 0.00000E+0, 2.00000E-1, 0.00000E+0, 0.00000E+0,1.00000,0,  100.0,    18.000,     3.000,   1,1.0000,0,1,0,1,0,1,0,1
   136,'3 ',     0.000,     0.000,    18.667,   -18.667,1.02455,     0,   100.000, 0.00000E+0, 2.00000E-1, 0.00000E+0, 0.00000E+0,1.00000,0,  100.0,    56.000,    10.000,   1,1.0000,0,1,0,1,0,1,0,1
   138,'1 ',     0.000,     0.000,   234.000,  -234.000,1.00788,     0,   100.000, 0.00000E+0, 2.00000E-1, 0.00000E+0, 0.00000E+0,1.00000,0,  100.0,   325.000,     0.000,   1,1.0000,0,1,0,1,0,1,0,1
   150,'1 ',   268.000,    16.813,   241.200,  -241.200,1.00794,     0,   100.000, 0.00000E+0, 1.80000E-1, 0.00000E+0, 0.00000E+0,1.00000,1,  100.0,   335.000,     0.000,   1,1.0000,0,1,0,1,0,1,0,1
   153,'99',   122.965,   -11.335,    33.333,   -33.333,0.99917,     0,   100.000, 0.00000E+0, 1.00000E+0, 0.00000E+0, 0.00000E+0,1.00000,0,  100.0,   137.965,   122.965,   1,1.0000,0,1,0,1,0,1,0,1
   157,'99',    38.537,   -25.154,    33.333,   -33.333,0.96379,     0,   100.000, 0.00000E+0, 1.00000E+0, 0.00000E+0, 0.00000E+0,1.00000,0,  100.0,    53.537,    38.537,   1,1.0000,0,1,0,1,0,1,0,1
   158,'99',   269.075,  -293.602,    33.333,   -33.333,0.95472,     0,   100.000, 0.00000E+0, 1.00000E+0, 0.00000E+0, 0.00000E+0,1.00000,0,  100.0,   284.075,   269.075,   1,1.0000,0,1,0,1,0,1,0,1
   161,'99',    27.024,  -118.604,    33.333,   -33.333,0.97706,     0,   100.000, 0.00000E+0, 1.00000E+0, 0.00000E+0, 0.00000E+0,1.00000,0,  100.0,    42.024,    27.024,   1,1.0000,0,1,0,1,0,1,0,1
   165,'1 ',     0.000,     0.000,   161.100,  -161.100,1.00224,     0,   100.000, 0.00000E+0, 1.80000E-1, 0.00000E+0, 0.00000E+0,1.00000,0,  100.0,   223.750,  -200.000,   1,1.0000,0,1,0,1,0,1,0,1
   165,'2 ',     0.000,     0.000,   161.100,  -161.100,1.00224,     0,   100.000, 0.00000E+0, 1.80000E-1, 0.00000E+0, 0.00000E+0,1.00000,0,  100.0,   223.750,  -200.000,   1,1.0000,0,1,0,1,0,1,0,1
   165,'3 ',     0.000,     0.000,   161.100,  -161.100,1.00224,     0,   100.000, 0.00000E+0, 1.80000E-1, 0.00000E+0, 0.00000E+0,1.00000,0,  100.0,   223.750,  -200.000,   1,1.0000,0,1,0,1,0,1,0,1
   166,'1 ',   179.000,    98.383,   161.100,  -161.100,1.00445,     0,   100.000, 0.00000E+0, 1.80000E-1, 0.00000E+0, 0.00000E+0,1.00000,1,  100.0,   223.750,  -200.000,   1,1.0000,0,1,0,1,0,1,0,1
   168,'1 ',    40.130,    49.500,    49.500,   -49.500,0.99919,     0,   100.000, 0.00000E+0, 2.00000E-1, 0.00000E+0, 0.00000E+0,1.00000,1,  100.0,    68.750,    26.000,   1,1.0000,0,1,0,1,0,1,0,1
   169,'1 ',     0.000,     0.000,    18.333,   -18.333,1.01909,     0,   100.000, 0.00000E+0, 2.00000E-1, 0.00000E+0, 0.00000E+0,1.00000,0,  100.0,    55.000,    26.000,   1,1.0000,0,1,0,1,0,1,0,1
   171,'1 ',     0.000,     0.000,   255.600,  -255.600,1.00718,     0,   100.000, 0.00000E+0, 2.00000E-1, 0.00000E+0, 0.00000E+0,1.00000,0,  100.0,   355.000,     0.000,   1,1.0000,0,1,0,1,0,1,0,1
   177,'1 ',     0.000,     0.000,    16.200,   -16.200,1.00718,     0,   100.000, 0.00000E+0, 2.00000E-1, 0.00000E+0, 0.00000E+0,1.00000,0,  100.0,    22.500,     0.000,   1,1.0000,0,1,0,1,0,1,0,1
   178,'1 ',    22.000,    12.375,    19.800,   -19.800,1.00788,     0,   100.000, 0.00000E+0, 2.00000E-1, 0.00000E+0, 0.00000E+0,1.00000,1,  100.0,    27.500,     0.000,   1,1.0000,0,1,0,1,0,1,0,1
   183,'1 ',   186.413,   -42.042,   235.800,  -235.800,1.00718,     0,   100.000, 0.00000E+0, 2.00000E-1, 0.00000E+0, 0.00000E+0,1.00000,1,  100.0,   327.500,     0.000,   1,1.0000,0,1,0,1,0,1,0,1
   185,'99',   154.950,   -23.899,   650.000,  -650.000,1.00980,     0,   100.000, 0.00000E+0, 1.00000E+0, 0.00000E+0, 0.00000E+0,1.00000,1,  100.0,   341.250,     0.000,   1,1.0000,0,1,0,1,0,1,0,1
   188,'1 ',   128.398,    32.727,   269.100,  -269.100,1.00788,     0,   100.000, 0.00000E+0, 2.00000E-1, 0.00000E+0, 0.00000E+0,1.00000,1,  100.0,   373.750,     1.000,   1,1.0000,0,1,0,1,0,1,0,1
   194,'1 ',     0.000,     0.000,   255.600,  -255.600,1.00718,     0,   100.000, 0.00000E+0, 2.00000E-1, 0.00000E+0, 0.00000E+0,1.00000,0,  100.0,   355.000,     0.000,   1,1.0000,0,1,0,1,0,1,0,1
   195,'1 ',   162.784,     1.821,   230.400,  -230.400,1.00788,     0,   100.000, 0.00000E+0, 2.00000E-1, 0.00000E+0, 0.00000E+0,1.00000,1,  100.0,   320.000,     0.000,   1,1.0000,0,1,0,1,0,1,0,1
   201,'1 ',    91.000,    -8.674,   261.900,  -261.900,1.00788,     0,   100.000, 0.00000E+0, 2.00000E-1, 0.00000E+0, 0.00000E+0,1.00000,1,  100.0,   363.750,     0.000,   1,1.0000,0,1,0,1,0,1,0,1
   207,'1 ',     0.000,     0.000,   264.600,  -264.600,1.00718,     0,   100.000, 0.00000E+0, 2.00000E-1, 0.00000E+0, 0.00000E+0,1.00000,0,  100.0,   367.500,     0.000,   1,1.0000,0,1,0,1,0,1,0,1
   209,'1 ',     0.000,     0.000,   234.900,  -234.900,1.00718,     0,   100.000, 0.00000E+0, 2.00000E-1, 0.00000E+0, 0.00000E+0,1.00000,0,  100.0,   326.250,     0.000,   1,1.0000,0,1,0,1,0,1,0,1
   217,'99',   105.359,    55.298,   650.000,  -650.000,0.99870,     0,   100.000, 0.00000E+0, 1.00000E+0, 0.00000E+0, 0.00000E+0,1.00000,1,  100.0,   213.769,     0.000,   1,1.0000,0,1,0,1,0,1,0,1
   223,'1 ',     0.000,     0.000,   241.893,  -241.893,1.00788,     0,   100.000, 0.00000E+0, 1.80000E-1, 0.00000E+0, 0.00000E+0,1.00000,0,  100.0,   335.963,   120.000,   1,1.0000,0,1,0,1,0,1,0,1
   224,'1 ',   268.750,   107.614,   241.875,  -241.875,1.00788,     0,   100.000, 0.00000E+0, 1.80000E-1, 0.00000E+0, 0.00000E+0,1.00000,1,  100.0,   335.938,   120.000,   1,1.0000,0,1,0,1,0,1,0,1
   225,'1 ',   256.250,   148.436,   230.625,  -230.625,1.00788,     0,   100.000, 0.00000E+0, 1.80000E-1, 0.00000E+0, 0.00000E+0,1.00000,1,  100.0,   320.312,   135.000,   1,1.0000,0,1,0,1,0,1,0,1
   227,'1 ',     0.000,     0.000,    45.000,   -45.000,1.01227,     0,   100.000, 0.00000E+0, 1.80000E-1, 0.00000E+0, 0.00000E+0,1.00000,0,  100.0,   135.000,  -135.000,   1,1.0000,0,1,0,1,0,1,0,1
   227,'2 ',     0.000,     0.000,    45.000,   -45.000,1.01227,     0,   100.000, 0.00000E+0, 1.80000E-1, 0.00000E+0, 0.00000E+0,1.00000,0,  100.0,   135.000,  -135.000,   1,1.0000,0,1,0,1,0,1,0,1
   228,'1 ',     0.000,     0.000,    45.000,   -45.000,1.01227,     0,   100.000, 0.00000E+0, 1.80000E-1, 0.00000E+0, 0.00000E+0,1.00000,0,  100.0,   135.000,  -135.000,   1,1.0000,0,1,0,1,0,1,0,1
   228,'2 ',     0.000,     0.000,    45.000,   -45.000,1.01227,     0,   100.000, 0.00000E+0, 1.80000E-1, 0.00000E+0, 0.00000E+0,1.00000,0,  100.0,   135.000,  -135.000,   1,1.0000,0,1,0,1,0,1,0,1
   235,'1 ',     0.000,     0.000,    16.667,   -16.667,1.02455,     0,   100.000, 0.00000E+0, 2.00000E-1, 0.00000E+0, 0.00000E+0,1.00000,0,  100.0,    50.000,    38.000,   1,1.0000,0,1,0,1,0,1,0,1
   235,'2 ',     0.000,     0.000,    16.667,   -16.667,1.02455,     0,   100.000, 0.00000E+0, 2.00000E-1, 0.00000E+0, 0.00000E+0,1.00000,0,  100.0,    50.000,    38.000,   1,1.0000,0,1,0,1,0,1,0,1
   235,'3 ',     0.000,     0.000,    16.667,   -16.667,1.02455,     0,   100.000, 0.00000E+0, 2.00000E-1, 0.00000E+0, 0.00000E+0,1.00000,0,  100.0,    50.000,    38.000,   1,1.0000,0,1,0,1,0,1,0,1
...